Version 4
SHEET 1 1140 912
WIRE 624 240 144 240
WIRE 144 272 144 240
WIRE 496 384 0 384
WIRE 0 416 0 384
WIRE 624 496 624 240
WIRE 240 544 0 544
WIRE 496 544 496 384
WIRE 560 544 496 544
WIRE 928 544 688 544
WIRE 0 576 0 544
WIRE 240 576 240 544
WIRE 560 576 240 576
WIRE 928 576 928 544
WIRE 560 608 496 608
WIRE 768 608 688 608
WIRE 768 640 768 608
WIRE 624 688 624 656
WIRE 496 704 496 608
WIRE 496 704 0 704
WIRE 0 736 0 704
FLAG 144 352 0
FLAG 0 496 0
FLAG 0 656 0
FLAG 0 816 0
FLAG 768 704 0
FLAG 928 640 0
FLAG 624 688 0
FLAG 0 384 A
FLAG 0 544 B
FLAG 0 704 Cin
FLAG 928 544 SUM
FLAG 768 608 Cout
FLAG 144 240 VDD
SYMBOL full_adder 624 576 R0
SYMATTR InstName X1
SYMBOL voltage 144 256 R0
WINDOW 123 0 0 Left 0
WINDOW 39 0 0 Left 0
SYMATTR InstName V1
SYMATTR Value 2.5
SYMBOL voltage 0 400 R0
WINDOW 123 0 0 Left 0
WINDOW 39 0 0 Left 0
SYMATTR InstName V2
SYMATTR Value PULSE(0 2.5 0 1p 1p 5u 10u)
SYMBOL voltage 0 560 R0
WINDOW 123 0 0 Left 0
WINDOW 39 0 0 Left 0
SYMATTR InstName V3
SYMATTR Value PULSE(0 2.5 0 1p 1p 2.5u 5u)
SYMBOL voltage 0 720 R0
WINDOW 123 0 0 Left 0
WINDOW 39 0 0 Left 0
SYMATTR InstName V4
SYMATTR Value PULSE(0 2.5 0 1p 1p 1.25u 2.5u)
SYMBOL cap 752 640 R0
SYMATTR InstName C1
SYMATTR Value 15f
SYMBOL cap 912 576 R0
SYMATTR InstName C2
SYMATTR Value 15f
TEXT 720 432 Left 2 !.tran 20u
