Version 4
SHEET 1 880 912
WIRE 368 368 48 368
WIRE 560 368 496 368
WIRE 144 432 48 432
WIRE 544 432 496 432
WIRE 544 560 544 432
WIRE 560 560 544 560
WIRE 688 576 656 576
WIRE 144 592 144 432
WIRE 560 592 144 592
FLAG -80 368 A
IOPIN -80 368 In
FLAG -80 432 B
IOPIN -80 432 In
FLAG 368 432 Cin
IOPIN 368 432 In
FLAG 560 368 SUM
IOPIN 560 368 Out
FLAG 688 576 Cout
IOPIN 688 576 Out
FLAG -16 320 VDD
IOPIN -16 320 In
FLAG 432 320 VDD
IOPIN 432 320 In
FLAG 608 544 VDD
IOPIN 608 544 In
FLAG -16 480 GND
IOPIN -16 480 In
FLAG 432 480 GND
IOPIN 432 480 In
FLAG 608 608 GND
IOPIN 608 608 In
SYMBOL half_adder -16 400 R0
SYMATTR InstName X1
SYMBOL half_adder 432 400 R0
SYMATTR InstName X2
SYMBOL or 608 576 R0
SYMATTR InstName X3
