Version 4
SHEET 1 880 912
WIRE 80 160 -208 160
WIRE 368 176 224 176
WIRE -208 224 -208 160
WIRE -208 224 -304 224
WIRE -208 304 -208 224
WIRE 368 304 368 176
WIRE -16 320 -64 320
WIRE 80 320 80 192
WIRE 80 320 -16 320
WIRE 576 320 512 320
WIRE -208 432 -208 336
WIRE -208 432 -304 432
WIRE 80 464 80 320
WIRE 368 480 368 336
WIRE 368 480 224 480
WIRE -208 496 -208 432
WIRE 80 496 -208 496
WIRE -16 752 -16 320
WIRE 64 752 -16 752
WIRE 304 752 224 752
FLAG 144 128 VDD
IOPIN 144 128 In
FLAG -144 272 VDD
IOPIN -144 272 In
FLAG 144 432 VDD
IOPIN 144 432 In
FLAG 144 704 VDD
IOPIN 144 704 In
FLAG 432 272 VDD
IOPIN 432 272 In
FLAG 144 528 GND
IOPIN 144 528 In
FLAG -144 368 GND
IOPIN -144 368 In
FLAG 432 368 GND
IOPIN 432 368 In
FLAG 144 800 GND
IOPIN 144 800 In
FLAG -304 224 A
IOPIN -304 224 In
FLAG 144 224 GND
IOPIN 144 224 In
FLAG -304 432 B
IOPIN -304 432 In
FLAG 576 320 SUM
IOPIN 576 320 Out
FLAG 304 752 Cout
IOPIN 304 752 Out
SYMBOL nand -144 320 R0
SYMATTR InstName X1
SYMBOL nand 144 176 R0
SYMATTR InstName X2
SYMBOL nand 144 480 R0
SYMATTR InstName X3
SYMBOL nand 432 320 R0
SYMATTR InstName X4
SYMBOL not 112 752 R0
SYMATTR InstName X5
