Version 4
SHEET 1 880 680
WIRE 176 0 128 0
WIRE 192 0 192 -32
WIRE 192 0 176 0
WIRE 272 0 192 0
WIRE 304 0 272 0
WIRE 176 48 176 0
WIRE 176 48 128 48
WIRE 304 48 304 0
WIRE 304 48 272 48
WIRE 128 112 128 96
WIRE 192 112 128 112
WIRE 272 112 272 96
WIRE 272 112 192 112
WIRE 192 144 192 112
WIRE 256 144 192 144
WIRE 240 192 192 192
WIRE 240 288 240 192
WIRE 240 288 192 288
WIRE 192 368 192 336
WIRE 240 368 240 288
WIRE 240 368 192 368
WIRE 192 400 192 368
FLAG 256 144 OUT
IOPIN 256 144 Out
FLAG 192 -32 VDD
IOPIN 192 -32 In
FLAG 192 400 GND
IOPIN 192 400 In
FLAG 80 80 A
IOPIN 80 80 In
FLAG 144 224 A
IOPIN 144 224 In
FLAG 224 80 B
IOPIN 224 80 In
FLAG 144 320 B
IOPIN 144 320 In
SYMBOL cmosn 144 144 R0
SYMATTR InstName M2
SYMATTR Value2 l=180nm w=800nm
SYMBOL cmosn 144 240 R0
SYMATTR InstName M4
SYMATTR Value2 l=180nm w=800nm
SYMBOL cmosp 80 0 R0
SYMATTR InstName M1
SYMATTR Value2 l=180nm w=800nm
SYMBOL cmosp 224 0 R0
SYMATTR InstName M3
SYMATTR Value2 l=180nm w=800nm
TEXT 416 -40 Left 2 !.include tsmc018.lib
