Version 4
SHEET 1 880 680
WIRE 208 -48 208 -80
WIRE 208 -48 192 -48
WIRE 240 -48 208 -48
WIRE 240 0 240 -48
WIRE 240 0 192 0
WIRE 240 96 240 0
WIRE 240 96 192 96
WIRE 256 144 192 144
WIRE 192 176 192 144
WIRE 192 176 128 176
WIRE 272 176 192 176
WIRE 176 224 128 224
WIRE 336 224 272 224
WIRE 176 272 176 224
WIRE 176 272 128 272
WIRE 208 272 176 272
WIRE 272 272 208 272
WIRE 336 272 336 224
WIRE 336 272 272 272
WIRE 208 304 208 272
FLAG 256 144 OUT
IOPIN 256 144 Out
FLAG 144 32 A
IOPIN 144 32 In
FLAG 80 256 A
IOPIN 80 256 In
FLAG 144 128 B
IOPIN 144 128 In
FLAG 224 256 B
IOPIN 224 256 In
FLAG 208 304 GND
IOPIN 208 304 In
FLAG 208 -80 VDD
IOPIN 208 -80 In
SYMBOL cmosp 144 48 R0
SYMATTR InstName M1
SYMATTR Value2 l=180nm w=1600nm
SYMBOL cmosn 80 176 R0
SYMATTR InstName M2
SYMATTR Value2 l=180nm w=400nm
SYMBOL cmosn 224 176 R0
SYMATTR InstName M3
SYMATTR Value2 l=180nm w=400nm
SYMBOL cmosp 144 -48 R0
SYMATTR InstName M4
SYMATTR Value2 l=180nm w=1600nm
TEXT 312 24 Left 2 !.include tsmc018.lib
