Version 4
SHEET 1 880 912
WIRE 64 352 32 352
WIRE 368 368 336 368
WIRE 64 384 32 384
FLAG 32 352 A
IOPIN 32 352 In
FLAG 32 384 B
IOPIN 32 384 In
FLAG 368 368 OUT
IOPIN 368 368 Out
FLAG 112 336 VDD
IOPIN 112 336 In
FLAG 256 320 VDD
IOPIN 256 320 In
FLAG 112 400 GND
IOPIN 112 400 In
FLAG 256 416 GND
IOPIN 256 416 In
SYMBOL nor 112 368 R0
SYMATTR InstName X1
SYMBOL not 224 368 R0
SYMATTR InstName X2
